NMB
 OpenBabel07192400593D

 75 79  0  0  1  0  0  0  0  0999 V2000
   -0.4080    0.8330   -1.2780 N   0  0  0  0  0  0  0  0  0  0  0  0
    0.0040    1.8320   -0.0050 S   0  0  0  0  0  0  0  0  0  0  0  0
    0.4240    0.8430    1.2730 N   0  0  0  0  0  0  0  0  0  0  0  0
   -0.3300   -0.3640    1.5120 C   0  0  1  0  0  0  0  0  0  0  0  0
    0.2320   -1.5370    0.7100 C   0  0  1  0  0  0  0  0  0  0  0  0
   -0.2010   -1.5420   -0.7010 C   0  0  2  0  0  0  0  0  0  0  0  0
    0.3540   -0.3730   -1.5120 C   0  0  1  0  0  0  0  0  0  0  0  0
   -1.5350    1.1750   -2.1490 C   0  0  0  0  0  0  0  0  0  0  0  0
   -2.7790    0.4820   -1.6570 C   0  0  0  0  0  0  0  0  0  0  0  0
   -3.4900    1.0100   -0.5960 C   0  0  0  0  0  0  0  0  0  0  0  0
   -4.6320    0.3740   -0.1450 C   0  0  0  0  0  0  0  0  0  0  0  0
   -5.0620   -0.7880   -0.7550 C   0  0  0  0  0  0  0  0  0  0  0  0
   -4.3520   -1.3160   -1.8170 C   0  0  0  0  0  0  0  0  0  0  0  0
   -3.2120   -0.6780   -2.2710 C   0  0  0  0  0  0  0  0  0  0  0  0
    1.2030    2.4860   -0.3990 O   0  0  0  0  0  0  0  0  0  0  0  0
   -0.9030    0.3290    3.7550 O   0  0  0  0  0  0  0  0  0  0  0  0
   -0.7960   -0.0160    5.0650 C   0  0  0  0  0  0  0  0  0  0  0  0
   -1.3870    0.7720    6.0410 C   0  0  0  0  0  0  0  0  0  0  0  0
   -1.2770    0.4190    7.3720 C   0  0  0  0  0  0  0  0  0  0  0  0
   -0.5790   -0.7180    7.7320 C   0  0  0  0  0  0  0  0  0  0  0  0
    0.0100   -1.5060    6.7600 C   0  0  0  0  0  0  0  0  0  0  0  0
   -0.1010   -1.1600    5.4270 C   0  0  0  0  0  0  0  0  0  0  0  0
    1.5480    1.1980    2.1430 C   0  0  0  0  0  0  0  0  0  0  0  0
    2.7960    0.5050    1.6600 C   0  0  0  0  0  0  0  0  0  0  0  0
    3.5100    1.0280    0.5980 C   0  0  0  0  0  0  0  0  0  0  0  0
    4.6540    0.3920    0.1550 C   0  0  0  0  0  0  0  0  0  0  0  0
    5.0860   -0.7650    0.7740 C   0  0  0  0  0  0  0  0  0  0  0  0
    4.3730   -1.2870    1.8370 C   0  0  0  0  0  0  0  0  0  0  0  0
    3.2300   -0.6490    2.2830 C   0  0  0  0  0  0  0  0  0  0  0  0
    1.6590   -1.4760    0.7500 O   0  0  0  0  0  0  0  0  0  0  0  0
   -1.6280   -1.4870   -0.7420 O   0  0  0  0  0  0  0  0  0  0  0  0
    0.2940   -0.7210   -3.0010 C   0  0  0  0  0  0  0  0  0  0  0  0
    0.8120    0.3670   -3.7660 O   0  0  0  0  0  0  0  0  0  0  0  0
    0.7340    0.0020   -5.0730 C   0  0  0  0  0  0  0  0  0  0  0  0
    1.1700    0.8690   -6.0640 C   0  0  0  0  0  0  0  0  0  0  0  0
    1.0900    0.4940   -7.3920 C   0  0  0  0  0  0  0  0  0  0  0  0
    0.5750   -0.7420   -7.7320 C   0  0  0  0  0  0  0  0  0  0  0  0
    0.1400   -1.6080   -6.7460 C   0  0  0  0  0  0  0  0  0  0  0  0
    0.2240   -1.2410   -5.4170 C   0  0  0  0  0  0  0  0  0  0  0  0
   -1.1970    2.4820    0.3830 O   0  0  0  0  0  0  0  0  0  0  0  0
   -0.2700   -0.7070    3.0010 C   0  0  0  0  0  0  0  0  0  0  0  0
   -1.3407   -0.1949    1.2040 H   0  0  0  0  0  0  0  0  0  0  0  0
   -0.1430   -2.4335    1.1579 H   0  0  0  0  0  0  0  0  0  0  0  0
    0.1794   -2.4398   -1.1416 H   0  0  0  0  0  0  0  0  0  0  0  0
    1.3651   -0.2005   -1.2074 H   0  0  0  0  0  0  0  0  0  0  0  0
   -1.3220    0.8582   -3.1486 H   0  0  0  0  0  0  0  0  0  0  0  0
   -1.6877    2.2340   -2.1350 H   0  0  0  0  0  0  0  0  0  0  0  0
   -3.1688    1.8785   -0.1405 H   0  0  0  0  0  0  0  0  0  0  0  0
   -5.1630    0.7677    0.6475 H   0  0  0  0  0  0  0  0  0  0  0  0
   -5.9141   -1.2625   -0.4177 H   0  0  0  0  0  0  0  0  0  0  0  0
   -4.6724   -2.1857   -2.2708 H   0  0  0  0  0  0  0  0  0  0  0  0
   -2.6849   -1.0680   -3.0679 H   0  0  0  0  0  0  0  0  0  0  0  0
   -1.9085    1.6213    5.7733 H   0  0  0  0  0  0  0  0  0  0  0  0
   -1.7168    1.0053    8.0986 H   0  0  0  0  0  0  0  0  0  0  0  0
   -0.4972   -0.9793    8.7270 H   0  0  0  0  0  0  0  0  0  0  0  0
    0.5330   -2.3535    7.0307 H   0  0  0  0  0  0  0  0  0  0  0  0
    0.3328   -1.7522    4.7017 H   0  0  0  0  0  0  0  0  0  0  0  0
    1.3343    0.8901    3.1452 H   0  0  0  0  0  0  0  0  0  0  0  0
    1.6965    2.2574    2.1191 H   0  0  0  0  0  0  0  0  0  0  0  0
    3.1887    1.8932    0.1362 H   0  0  0  0  0  0  0  0  0  0  0  0
    5.1860    0.7816   -0.6388 H   0  0  0  0  0  0  0  0  0  0  0  0
    5.9406   -1.2394    0.4430 H   0  0  0  0  0  0  0  0  0  0  0  0
    4.6937   -2.1529    2.2978 H   0  0  0  0  0  0  0  0  0  0  0  0
    2.7015   -1.0349    3.0810 H   0  0  0  0  0  0  0  0  0  0  0  0
    1.9591   -0.6517    0.3360 H   0  0  0  0  0  0  0  0  0  0  0  0
   -1.9316   -0.6609   -0.3343 H   0  0  0  0  0  0  0  0  0  0  0  0
   -0.7216   -0.9039   -3.2837 H   0  0  0  0  0  0  0  0  0  0  0  0
    0.8795   -1.5973   -3.1860 H   0  0  0  0  0  0  0  0  0  0  0  0
    1.5536    1.7928   -5.8102 H   0  0  0  0  0  0  0  0  0  0  0  0
    1.4152    1.1378   -8.1301 H   0  0  0  0  0  0  0  0  0  0  0  0
    0.5149   -1.0195   -8.7242 H   0  0  0  0  0  0  0  0  0  0  0  0
   -0.2477   -2.5292   -7.0031 H   0  0  0  0  0  0  0  0  0  0  0  0
   -0.0925   -1.8912   -4.6807 H   0  0  0  0  0  0  0  0  0  0  0  0
    0.7519   -0.7961    3.3055 H   0  0  0  0  0  0  0  0  0  0  0  0
   -0.7761   -1.6338    3.1739 H   0  0  0  0  0  0  0  0  0  0  0  0
  1  2  1  0  0  0  0
  1  7  1  0  0  0  0
  1  8  1  0  0  0  0
  2  3  1  0  0  0  0
  2 15  2  0  0  0  0
  2 40  2  0  0  0  0
  3  4  1  0  0  0  0
  3 23  1  0  0  0  0
  4  5  1  0  0  0  0
  4 41  1  0  0  0  0
  4 42  1  6  0  0  0
  5  6  1  0  0  0  0
  5 30  1  0  0  0  0
  5 43  1  1  0  0  0
  6  7  1  0  0  0  0
  6 31  1  0  0  0  0
  6 44  1  6  0  0  0
  7 32  1  0  0  0  0
  7 45  1  1  0  0  0
  8  9  1  0  0  0  0
  8 46  1  0  0  0  0
  8 47  1  0  0  0  0
  9 10  2  0  0  0  0
  9 14  1  0  0  0  0
 10 11  1  0  0  0  0
 10 48  1  0  0  0  0
 11 12  2  0  0  0  0
 11 49  1  0  0  0  0
 12 13  1  0  0  0  0
 12 50  1  0  0  0  0
 13 14  2  0  0  0  0
 13 51  1  0  0  0  0
 14 52  1  0  0  0  0
 16 17  1  0  0  0  0
 16 41  1  0  0  0  0
 17 18  2  0  0  0  0
 17 22  1  0  0  0  0
 18 19  1  0  0  0  0
 18 53  1  0  0  0  0
 19 20  2  0  0  0  0
 19 54  1  0  0  0  0
 20 21  1  0  0  0  0
 20 55  1  0  0  0  0
 21 22  2  0  0  0  0
 21 56  1  0  0  0  0
 22 57  1  0  0  0  0
 23 24  1  0  0  0  0
 23 58  1  0  0  0  0
 23 59  1  0  0  0  0
 24 25  2  0  0  0  0
 24 29  1  0  0  0  0
 25 26  1  0  0  0  0
 25 60  1  0  0  0  0
 26 27  2  0  0  0  0
 26 61  1  0  0  0  0
 27 28  1  0  0  0  0
 27 62  1  0  0  0  0
 28 29  2  0  0  0  0
 28 63  1  0  0  0  0
 29 64  1  0  0  0  0
 30 65  1  0  0  0  0
 31 66  1  0  0  0  0
 32 33  1  0  0  0  0
 32 67  1  0  0  0  0
 32 68  1  0  0  0  0
 33 34  1  0  0  0  0
 34 35  2  0  0  0  0
 34 39  1  0  0  0  0
 35 36  1  0  0  0  0
 35 69  1  0  0  0  0
 36 37  2  0  0  0  0
 36 70  1  0  0  0  0
 37 38  1  0  0  0  0
 37 71  1  0  0  0  0
 38 39  2  0  0  0  0
 38 72  1  0  0  0  0
 39 73  1  0  0  0  0
 41 74  1  0  0  0  0
 41 75  1  0  0  0  0
M  END
$$$$
