NMB
  Mrv15b2307192400592D          

 41 45  0  0  0  0            999 V2000
    0.7923    0.0567    0.0000 N   0  0  0  0  0  0  0  0  0  0  0  0
    0.1107   -0.4080    0.0000 S   0  0  0  0  0  0  0  0  0  0  0  0
   -0.6777   -0.1648    0.0000 N   0  0  0  0  0  0  0  0  0  0  0  0
   -0.9791    0.6031    0.0000 C   0  0  1  0  0  0  0  0  0  0  0  0
   -0.5666    1.3176    0.0000 C   0  0  1  0  0  0  0  0  0  0  0  0
    0.2492    1.4406    0.0000 C   0  0  2  0  0  0  0  0  0  0  0  0
    0.8540    0.8794    0.0000 C   0  0  1  0  0  0  0  0  0  0  0  0
    1.5068   -0.3558    0.0000 C   0  0  0  0  0  0  0  0  0  0  0  0
    1.5068   -1.1808    0.0000 C   0  0  0  0  0  0  0  0  0  0  0  0
    2.2213   -1.5933    0.0000 C   0  0  0  0  0  0  0  0  0  0  0  0
    2.2213   -2.4183    0.0000 C   0  0  0  0  0  0  0  0  0  0  0  0
    1.5068   -2.8308    0.0000 C   0  0  0  0  0  0  0  0  0  0  0  0
    0.7923   -2.4183    0.0000 C   0  0  0  0  0  0  0  0  0  0  0  0
    0.7923   -1.5933    0.0000 C   0  0  0  0  0  0  0  0  0  0  0  0
    0.5906   -1.0791    0.0000 O   0  0  0  0  0  0  0  0  0  0  0  0
   -2.2665   -0.0169    0.0000 O   0  0  0  0  0  0  0  0  0  0  0  0
   -3.0892    0.0448    0.0000 C   0  0  0  0  0  0  0  0  0  0  0  0
   -3.5539   -0.6369    0.0000 C   0  0  0  0  0  0  0  0  0  0  0  0
   -4.3766   -0.5752    0.0000 C   0  0  0  0  0  0  0  0  0  0  0  0
   -4.7346    0.1681    0.0000 C   0  0  0  0  0  0  0  0  0  0  0  0
   -4.2698    0.8497    0.0000 C   0  0  0  0  0  0  0  0  0  0  0  0
   -3.4472    0.7881    0.0000 C   0  0  0  0  0  0  0  0  0  0  0  0
   -1.2388   -0.7696    0.0000 C   0  0  0  0  0  0  0  0  0  0  0  0
   -0.9956   -1.5580    0.0000 C   0  0  0  0  0  0  0  0  0  0  0  0
   -0.1913   -1.7415    0.0000 C   0  0  0  0  0  0  0  0  0  0  0  0
    0.0519   -2.5299    0.0000 C   0  0  0  0  0  0  0  0  0  0  0  0
   -0.5093   -3.1346    0.0000 C   0  0  0  0  0  0  0  0  0  0  0  0
   -1.3136   -2.9511    0.0000 C   0  0  0  0  0  0  0  0  0  0  0  0
   -1.5568   -2.1627    0.0000 C   0  0  0  0  0  0  0  0  0  0  0  0
   -1.0313    1.9993    0.0000 O   0  0  0  0  0  0  0  0  0  0  0  0
    0.4924    2.2289    0.0000 O   0  0  0  0  0  0  0  0  0  0  0  0
    1.6220    1.1808    0.0000 C   0  0  0  0  0  0  0  0  0  0  0  0
    1.7449    1.9966    0.0000 O   0  0  0  0  0  0  0  0  0  0  0  0
    2.5129    2.2980    0.0000 C   0  0  0  0  0  0  0  0  0  0  0  0
    2.6358    3.1138    0.0000 C   0  0  0  0  0  0  0  0  0  0  0  0
    3.4038    3.4152    0.0000 C   0  0  0  0  0  0  0  0  0  0  0  0
    4.0488    2.9008    0.0000 C   0  0  0  0  0  0  0  0  0  0  0  0
    3.9259    2.0850    0.0000 C   0  0  0  0  0  0  0  0  0  0  0  0
    3.1579    1.7836    0.0000 C   0  0  0  0  0  0  0  0  0  0  0  0
   -0.1501   -1.1907    0.0000 O   0  0  0  0  0  0  0  0  0  0  0  0
   -1.8018    0.6648    0.0000 C   0  0  0  0  0  0  0  0  0  0  0  0
  1  2  1  0  0  0  0
  1  7  1  0  0  0  0
  1  8  1  0  0  0  0
  2  3  1  0  0  0  0
  2 15  2  0  0  0  0
  2 40  2  0  0  0  0
  3  4  1  0  0  0  0
  3 23  1  0  0  0  0
  4  5  1  0  0  0  0
  4 41  1  6  0  0  0
  5  6  1  0  0  0  0
  5 30  1  6  0  0  0
  6  7  1  0  0  0  0
  6 31  1  1  0  0  0
  7 32  1  1  0  0  0
  8  9  1  0  0  0  0
  9 10  4  0  0  0  0
  9 14  4  0  0  0  0
 10 11  4  0  0  0  0
 11 12  4  0  0  0  0
 12 13  4  0  0  0  0
 13 14  4  0  0  0  0
 16 17  1  0  0  0  0
 16 41  1  0  0  0  0
 17 18  4  0  0  0  0
 17 22  4  0  0  0  0
 18 19  4  0  0  0  0
 19 20  4  0  0  0  0
 20 21  4  0  0  0  0
 21 22  4  0  0  0  0
 23 24  1  0  0  0  0
 24 25  4  0  0  0  0
 24 29  4  0  0  0  0
 25 26  4  0  0  0  0
 26 27  4  0  0  0  0
 27 28  4  0  0  0  0
 28 29  4  0  0  0  0
 32 33  1  0  0  0  0
 33 34  1  0  0  0  0
 34 35  4  0  0  0  0
 34 39  4  0  0  0  0
 35 36  4  0  0  0  0
 36 37  4  0  0  0  0
 37 38  4  0  0  0  0
 38 39  4  0  0  0  0
M  END
